Created my my new txt.
New line.
Another new line.
After staging.
